Version 4
SHEET 1 880 824
WIRE 352 -96 352 -144
WIRE 352 -96 240 -96
WIRE 432 -96 352 -96
WIRE 432 -16 432 -96
WIRE 240 32 240 -96
WIRE 432 112 432 80
WIRE 432 112 384 112
WIRE 240 176 240 128
WIRE 384 176 384 112
SYMBOL pmos4 192 32 R0
SYMATTR InstName M1
SYMBOL pmos4 288 272 R180
SYMATTR InstName M2
SYMBOL pmos4 384 -16 R0
SYMATTR InstName M3
SYMBOL pmos4 432 272 R180
SYMATTR InstName M4
SYMBOL pmos4 624 272 R180
SYMATTR InstName M5
SYMBOL pmos4 336 320 R0
SYMATTR InstName M6
SYMBOL nmos4 336 464 R0
SYMATTR InstName M7
SYMBOL nmos4 432 720 R180
SYMATTR InstName M8
SYMBOL nmos4 192 448 R0
SYMATTR InstName M9
